data_model
_audit_creation_date              2023-09-30
_audit_creation_method            'Materials Studio'
_symmetry_space_group_name_H-M    'P1'
_symmetry_Int_Tables_number       1
_symmetry_cell_setting            triclinic
loop_
_symmetry_equiv_pos_as_xyz
  x,y,z
_cell_length_a                    23.7417
_cell_length_b                    23.7417
_cell_length_c                    23.7417
_cell_angle_alpha                 60.0000
_cell_angle_beta                  60.0000
_cell_angle_gamma                 60.0000
loop_
_atom_site_label
_atom_site_type_symbol
_atom_site_fract_x
_atom_site_fract_y
_atom_site_fract_z
_atom_site_U_iso_or_equiv
_atom_site_adp_type
_atom_site_occupancy
H1     H     0.15790   0.43700   0.33447   0.01267  Uiso   1.00
H2     H     0.44468   0.15023   0.01755   0.01267  Uiso   1.00
H3     H     0.55275   0.22814   0.93963   0.01267  Uiso   1.00
H4     H     0.23582   0.54507   0.22641   0.01267  Uiso   1.00
H5     H     0.55275   0.15023   0.22641   0.01267  Uiso   1.00
H6     H     0.23582   0.43700   0.93963   0.01267  Uiso   1.00
H7     H     0.15790   0.54507   0.01755   0.01267  Uiso   1.00
H8     H     0.44468   0.22814   0.33447   0.01267  Uiso   1.00
H9     H     0.44468   0.54507   0.93963   0.01267  Uiso   1.00
H10    H     0.15790   0.22814   0.22641   0.01267  Uiso   1.00
H11    H     0.23582   0.15023   0.33447   0.01267  Uiso   1.00
H12    H     0.55275   0.43700   0.01755   0.01267  Uiso   1.00
H13    H     0.78767   0.49322   0.49148   0.01267  Uiso   1.00
H14    H     0.50089   0.77999   0.17456   0.01267  Uiso   1.00
H15    H     0.39283   0.70208   0.28262   0.01267  Uiso   1.00
H16    H     0.70976   0.38515   0.56940   0.01267  Uiso   1.00
H17    H     0.39283   0.77999   0.49148   0.01267  Uiso   1.00
H18    H     0.70976   0.49322   0.17456   0.01267  Uiso   1.00
H19    H     0.78767   0.38515   0.28262   0.01267  Uiso   1.00
H20    H     0.50089   0.70208   0.56940   0.01267  Uiso   1.00
H21    H     0.50089   0.38515   0.49148   0.01267  Uiso   1.00
H22    H     0.78767   0.70208   0.17456   0.01267  Uiso   1.00
H23    H     0.70976   0.77999   0.28262   0.01267  Uiso   1.00
H24    H     0.39283   0.49322   0.56940   0.01267  Uiso   1.00
H25    H     0.78767   0.49322   0.17456   0.01267  Uiso   1.00
H26    H     0.50089   0.77999   0.49148   0.01267  Uiso   1.00
H27    H     0.39283   0.70208   0.56940   0.01267  Uiso   1.00
H28    H     0.70976   0.38515   0.28262   0.01267  Uiso   1.00
H29    H     0.39283   0.77999   0.28262   0.01267  Uiso   1.00
H30    H     0.70976   0.49322   0.56940   0.01267  Uiso   1.00
H31    H     0.78767   0.38515   0.49148   0.01267  Uiso   1.00
H32    H     0.50089   0.70208   0.17456   0.01267  Uiso   1.00
H33    H     0.50089   0.38515   0.56940   0.01267  Uiso   1.00
H34    H     0.78767   0.70208   0.28262   0.01267  Uiso   1.00
H35    H     0.70976   0.77999   0.17456   0.01267  Uiso   1.00
H36    H     0.39283   0.49322   0.49148   0.01267  Uiso   1.00
H37    H     0.15790   0.43700   0.01755   0.01267  Uiso   1.00
H38    H     0.44468   0.15023   0.33447   0.01267  Uiso   1.00
H39    H     0.55275   0.22814   0.22641   0.01267  Uiso   1.00
H40    H     0.23582   0.54507   0.93963   0.01267  Uiso   1.00
H41    H     0.55275   0.15023   0.01755   0.01267  Uiso   1.00
H42    H     0.23582   0.43700   0.33447   0.01267  Uiso   1.00
H43    H     0.15790   0.54507   0.22641   0.01267  Uiso   1.00
H44    H     0.44468   0.22814   0.93963   0.01267  Uiso   1.00
H45    H     0.44468   0.54507   0.01755   0.01267  Uiso   1.00
H46    H     0.15790   0.22814   0.33447   0.01267  Uiso   1.00
H47    H     0.23582   0.15023   0.22641   0.01267  Uiso   1.00
H48    H     0.55275   0.43700   0.93963   0.01267  Uiso   1.00
C49    C     0.09925   0.38533   0.34734   0.01267  Uiso   1.00
C50    C     0.16052   0.39097   0.33236   0.01267  Uiso   1.00
C51    C     0.22320   0.33631   0.32151   0.01267  Uiso   1.00
C52    C     0.39300   0.09157   0.11503   0.01267  Uiso   1.00
C53    C     0.39865   0.15284   0.06309   0.01267  Uiso   1.00
C54    C     0.34399   0.21552   0.06591   0.01267  Uiso   1.00
C55    C     0.56561   0.32562   0.88097   0.01267  Uiso   1.00
C56    C     0.55063   0.27368   0.94225   0.01267  Uiso   1.00
C57    C     0.53978   0.27651   0.00493   0.01267  Uiso   1.00
C58    C     0.33330   0.55793   0.17473   0.01267  Uiso   1.00
C59    C     0.28136   0.54295   0.18037   0.01267  Uiso   1.00
C60    C     0.28418   0.53210   0.12572   0.01267  Uiso   1.00
C61    C     0.56561   0.09157   0.17473   0.01267  Uiso   1.00
C62    C     0.55063   0.15284   0.18037   0.01267  Uiso   1.00
C63    C     0.53978   0.21552   0.12572   0.01267  Uiso   1.00
C64    C     0.33330   0.38533   0.88097   0.01267  Uiso   1.00
C65    C     0.28136   0.39097   0.94225   0.01267  Uiso   1.00
C66    C     0.28418   0.33631   0.00493   0.01267  Uiso   1.00
C67    C     0.09925   0.55793   0.11503   0.01267  Uiso   1.00
C68    C     0.16052   0.54295   0.06309   0.01267  Uiso   1.00
C69    C     0.22320   0.53210   0.06591   0.01267  Uiso   1.00
C70    C     0.39300   0.32562   0.34734   0.01267  Uiso   1.00
C71    C     0.39865   0.27368   0.33236   0.01267  Uiso   1.00
C72    C     0.34399   0.27651   0.32151   0.01267  Uiso   1.00
C73    C     0.39300   0.55793   0.88097   0.01267  Uiso   1.00
C74    C     0.39865   0.54295   0.94225   0.01267  Uiso   1.00
C75    C     0.34399   0.53210   0.00493   0.01267  Uiso   1.00
C76    C     0.09925   0.32562   0.17473   0.01267  Uiso   1.00
C77    C     0.16052   0.27368   0.18037   0.01267  Uiso   1.00
C78    C     0.22320   0.27651   0.12572   0.01267  Uiso   1.00
C79    C     0.33330   0.09157   0.34734   0.01267  Uiso   1.00
C80    C     0.28136   0.15284   0.33236   0.01267  Uiso   1.00
C81    C     0.28418   0.21552   0.32151   0.01267  Uiso   1.00
C82    C     0.56561   0.38533   0.11503   0.01267  Uiso   1.00
C83    C     0.55063   0.39097   0.06309   0.01267  Uiso   1.00
C84    C     0.53978   0.33631   0.06591   0.01267  Uiso   1.00
C85    C     0.84633   0.54489   0.39401   0.01267  Uiso   1.00
C86    C     0.78506   0.53925   0.44595   0.01267  Uiso   1.00
C87    C     0.72237   0.59391   0.44312   0.01267  Uiso   1.00
C88    C     0.55257   0.83865   0.16170   0.01267  Uiso   1.00
C89    C     0.54693   0.77738   0.17667   0.01267  Uiso   1.00
C90    C     0.60159   0.71470   0.18752   0.01267  Uiso   1.00
C91    C     0.37997   0.60460   0.33430   0.01267  Uiso   1.00
C92    C     0.39494   0.65654   0.32866   0.01267  Uiso   1.00
C93    C     0.40580   0.65372   0.38332   0.01267  Uiso   1.00
C94    C     0.61228   0.37229   0.62806   0.01267  Uiso   1.00
C95    C     0.66422   0.38727   0.56679   0.01267  Uiso   1.00
C96    C     0.66139   0.39812   0.50410   0.01267  Uiso   1.00
C97    C     0.37997   0.83865   0.39401   0.01267  Uiso   1.00
C98    C     0.39494   0.77738   0.44595   0.01267  Uiso   1.00
C99    C     0.40580   0.71470   0.44312   0.01267  Uiso   1.00
C100   C     0.61228   0.54489   0.16170   0.01267  Uiso   1.00
C101   C     0.66422   0.53925   0.17667   0.01267  Uiso   1.00
C102   C     0.66139   0.59391   0.18753   0.01267  Uiso   1.00
C103   C     0.84633   0.37229   0.33430   0.01267  Uiso   1.00
C104   C     0.78506   0.38726   0.32866   0.01267  Uiso   1.00
C105   C     0.72237   0.39812   0.38332   0.01267  Uiso   1.00
C106   C     0.55257   0.60460   0.62806   0.01267  Uiso   1.00
C107   C     0.54693   0.65654   0.56679   0.01267  Uiso   1.00
C108   C     0.60159   0.65372   0.50410   0.01267  Uiso   1.00
C109   C     0.55257   0.37229   0.39401   0.01267  Uiso   1.00
C110   C     0.54693   0.38726   0.44595   0.01267  Uiso   1.00
C111   C     0.60159   0.39812   0.44312   0.01267  Uiso   1.00
C112   C     0.84633   0.60460   0.16170   0.01267  Uiso   1.00
C113   C     0.78506   0.65654   0.17667   0.01267  Uiso   1.00
C114   C     0.72237   0.65372   0.18752   0.01267  Uiso   1.00
C115   C     0.61228   0.83865   0.33430   0.01267  Uiso   1.00
C116   C     0.66422   0.77738   0.32866   0.01267  Uiso   1.00
C117   C     0.66139   0.71470   0.38332   0.01267  Uiso   1.00
C118   C     0.37997   0.54489   0.62806   0.01267  Uiso   1.00
C119   C     0.39494   0.53925   0.56679   0.01267  Uiso   1.00
C120   C     0.40580   0.59391   0.50410   0.01267  Uiso   1.00
C121   C     0.84633   0.54489   0.16170   0.01267  Uiso   1.00
C122   C     0.78506   0.53925   0.17667   0.01267  Uiso   1.00
C123   C     0.72237   0.59391   0.18752   0.01267  Uiso   1.00
C124   C     0.55257   0.83865   0.39401   0.01267  Uiso   1.00
C125   C     0.54693   0.77738   0.44595   0.01267  Uiso   1.00
C126   C     0.60159   0.71470   0.44312   0.01267  Uiso   1.00
C127   C     0.37997   0.60460   0.62806   0.01267  Uiso   1.00
C128   C     0.39494   0.65654   0.56679   0.01267  Uiso   1.00
C129   C     0.40580   0.65372   0.50410   0.01267  Uiso   1.00
C130   C     0.61228   0.37229   0.33430   0.01267  Uiso   1.00
C131   C     0.66422   0.38727   0.32866   0.01267  Uiso   1.00
C132   C     0.66139   0.39812   0.38332   0.01267  Uiso   1.00
C133   C     0.37997   0.83865   0.33430   0.01267  Uiso   1.00
C134   C     0.39494   0.77738   0.32866   0.01267  Uiso   1.00
C135   C     0.40580   0.71470   0.38332   0.01267  Uiso   1.00
C136   C     0.61228   0.54489   0.62806   0.01267  Uiso   1.00
C137   C     0.66422   0.53925   0.56679   0.01267  Uiso   1.00
C138   C     0.66139   0.59391   0.50410   0.01267  Uiso   1.00
C139   C     0.84633   0.37229   0.39401   0.01267  Uiso   1.00
C140   C     0.78506   0.38726   0.44595   0.01267  Uiso   1.00
C141   C     0.72237   0.39812   0.44312   0.01267  Uiso   1.00
C142   C     0.55257   0.60460   0.16170   0.01267  Uiso   1.00
C143   C     0.54693   0.65654   0.17667   0.01267  Uiso   1.00
C144   C     0.60159   0.65372   0.18753   0.01267  Uiso   1.00
C145   C     0.55257   0.37229   0.62806   0.01267  Uiso   1.00
C146   C     0.54693   0.38726   0.56679   0.01267  Uiso   1.00
C147   C     0.60159   0.39812   0.50410   0.01267  Uiso   1.00
C148   C     0.84633   0.60460   0.33430   0.01267  Uiso   1.00
C149   C     0.78506   0.65654   0.32866   0.01267  Uiso   1.00
C150   C     0.72237   0.65372   0.38332   0.01267  Uiso   1.00
C151   C     0.61228   0.83865   0.16170   0.01267  Uiso   1.00
C152   C     0.66422   0.77738   0.17667   0.01267  Uiso   1.00
C153   C     0.66139   0.71470   0.18753   0.01267  Uiso   1.00
C154   C     0.37997   0.54489   0.39401   0.01267  Uiso   1.00
C155   C     0.39494   0.53925   0.44595   0.01267  Uiso   1.00
C156   C     0.40580   0.59391   0.44312   0.01267  Uiso   1.00
C157   C     0.09925   0.38533   0.11503   0.01267  Uiso   1.00
C158   C     0.16052   0.39097   0.06309   0.01267  Uiso   1.00
C159   C     0.22320   0.33631   0.06591   0.01267  Uiso   1.00
C160   C     0.39300   0.09157   0.34734   0.01267  Uiso   1.00
C161   C     0.39865   0.15284   0.33236   0.01267  Uiso   1.00
C162   C     0.34399   0.21552   0.32151   0.01267  Uiso   1.00
C163   C     0.56561   0.32562   0.17473   0.01267  Uiso   1.00
C164   C     0.55063   0.27368   0.18037   0.01267  Uiso   1.00
C165   C     0.53978   0.27651   0.12571   0.01267  Uiso   1.00
C166   C     0.33330   0.55793   0.88097   0.01267  Uiso   1.00
C167   C     0.28136   0.54295   0.94225   0.01267  Uiso   1.00
C168   C     0.28418   0.53210   0.00493   0.01267  Uiso   1.00
C169   C     0.56561   0.09157   0.11503   0.01267  Uiso   1.00
C170   C     0.55063   0.15284   0.06309   0.01267  Uiso   1.00
C171   C     0.53978   0.21552   0.06591   0.01267  Uiso   1.00
C172   C     0.33330   0.38533   0.34734   0.01267  Uiso   1.00
C173   C     0.28136   0.39097   0.33236   0.01267  Uiso   1.00
C174   C     0.28418   0.33631   0.32151   0.01267  Uiso   1.00
C175   C     0.09925   0.55793   0.17473   0.01267  Uiso   1.00
C176   C     0.16052   0.54295   0.18037   0.01267  Uiso   1.00
C177   C     0.22320   0.53210   0.12572   0.01267  Uiso   1.00
C178   C     0.39300   0.32562   0.88097   0.01267  Uiso   1.00
C179   C     0.39865   0.27368   0.94225   0.01267  Uiso   1.00
C180   C     0.34399   0.27651   0.00493   0.01267  Uiso   1.00
C181   C     0.39300   0.55793   0.11503   0.01267  Uiso   1.00
C182   C     0.39865   0.54295   0.06309   0.01267  Uiso   1.00
C183   C     0.34399   0.53210   0.06591   0.01267  Uiso   1.00
C184   C     0.09925   0.32562   0.34734   0.01267  Uiso   1.00
C185   C     0.16052   0.27368   0.33236   0.01267  Uiso   1.00
C186   C     0.22320   0.27651   0.32151   0.01267  Uiso   1.00
C187   C     0.33330   0.09157   0.17473   0.01267  Uiso   1.00
C188   C     0.28136   0.15284   0.18037   0.01267  Uiso   1.00
C189   C     0.28418   0.21552   0.12572   0.01267  Uiso   1.00
C190   C     0.56561   0.38533   0.88097   0.01267  Uiso   1.00
C191   C     0.55063   0.39097   0.94225   0.01267  Uiso   1.00
C192   C     0.53978   0.33631   0.00493   0.01267  Uiso   1.00
O193   O     0.03679   0.43242   0.36706   0.01267  Uiso   1.00
O194   O     0.44010   0.02912   0.11066   0.01267  Uiso   1.00
O195   O     0.58533   0.32125   0.81852   0.01267  Uiso   1.00
O196   O     0.32893   0.57765   0.22183   0.01267  Uiso   1.00
O197   O     0.58533   0.02912   0.22183   0.01267  Uiso   1.00
O198   O     0.32893   0.43242   0.81852   0.01267  Uiso   1.00
O199   O     0.03679   0.57765   0.11066   0.01267  Uiso   1.00
O200   O     0.44010   0.32125   0.36706   0.01267  Uiso   1.00
O201   O     0.44010   0.57765   0.81852   0.01267  Uiso   1.00
O202   O     0.03679   0.32125   0.22183   0.01267  Uiso   1.00
O203   O     0.32893   0.02912   0.36706   0.01267  Uiso   1.00
O204   O     0.58533   0.43242   0.11066   0.01267  Uiso   1.00
O205   O     0.90878   0.49780   0.39838   0.01267  Uiso   1.00
O206   O     0.50548   0.90110   0.14198   0.01267  Uiso   1.00
O207   O     0.36025   0.60897   0.28721   0.01267  Uiso   1.00
O208   O     0.61665   0.35257   0.69051   0.01267  Uiso   1.00
O209   O     0.36025   0.90110   0.39838   0.01267  Uiso   1.00
O210   O     0.61665   0.49780   0.14198   0.01267  Uiso   1.00
O211   O     0.90878   0.35257   0.28721   0.01267  Uiso   1.00
O212   O     0.50548   0.60897   0.69051   0.01267  Uiso   1.00
O213   O     0.50548   0.35257   0.39838   0.01267  Uiso   1.00
O214   O     0.90878   0.60897   0.14198   0.01267  Uiso   1.00
O215   O     0.61665   0.90110   0.28721   0.01267  Uiso   1.00
O216   O     0.36025   0.49780   0.69051   0.01267  Uiso   1.00
O217   O     0.90878   0.49780   0.14198   0.01267  Uiso   1.00
O218   O     0.50548   0.90110   0.39838   0.01267  Uiso   1.00
O219   O     0.36025   0.60897   0.69051   0.01267  Uiso   1.00
O220   O     0.61665   0.35257   0.28721   0.01267  Uiso   1.00
O221   O     0.36025   0.90110   0.28721   0.01267  Uiso   1.00
O222   O     0.61665   0.49780   0.69051   0.01267  Uiso   1.00
O223   O     0.90878   0.35257   0.39838   0.01267  Uiso   1.00
O224   O     0.50548   0.60897   0.14198   0.01267  Uiso   1.00
O225   O     0.50548   0.35257   0.69051   0.01267  Uiso   1.00
O226   O     0.90878   0.60897   0.28721   0.01267  Uiso   1.00
O227   O     0.61665   0.90110   0.14198   0.01267  Uiso   1.00
O228   O     0.36025   0.49780   0.39838   0.01267  Uiso   1.00
O229   O     0.03679   0.43242   0.11066   0.01267  Uiso   1.00
O230   O     0.44010   0.02912   0.36706   0.01267  Uiso   1.00
O231   O     0.58533   0.32125   0.22183   0.01267  Uiso   1.00
O232   O     0.32893   0.57765   0.81852   0.01267  Uiso   1.00
O233   O     0.58533   0.02912   0.11066   0.01267  Uiso   1.00
O234   O     0.32893   0.43242   0.36706   0.01267  Uiso   1.00
O235   O     0.03679   0.57765   0.22183   0.01267  Uiso   1.00
O236   O     0.44010   0.32125   0.81852   0.01267  Uiso   1.00
O237   O     0.44010   0.57765   0.11066   0.01267  Uiso   1.00
O238   O     0.03679   0.32125   0.36706   0.01267  Uiso   1.00
O239   O     0.32893   0.02912   0.22183   0.01267  Uiso   1.00
O240   O     0.58533   0.43242   0.81852   0.01267  Uiso   1.00
Mg241  Mg    0.23469   0.24202   0.48172   0.01267  Uiso   1.00
Mn242  Mn    0.99318   0.53205   0.32145   0.01267  Uiso   1.00
Mn243  Mn    0.53973   0.98550   0.10025   0.01267  Uiso   1.00
Mn244  Mn    0.53973   0.31084   0.77491   0.01267  Uiso   1.00
Mn245  Mn    0.31852   0.53205   0.32145   0.01267  Uiso   1.00
Mn246  Mn    0.53973   0.98550   0.32145   0.01267  Uiso   1.00
Mn247  Mn    0.31852   0.53205   0.77491   0.01267  Uiso   1.00
Mn248  Mn    0.99318   0.53205   0.10025   0.01267  Uiso   1.00
Mn249  Mn    0.53973   0.31084   0.32145   0.01267  Uiso   1.00
Mn250  Mn    0.53973   0.53205   0.77491   0.01267  Uiso   1.00
Mn251  Mn    0.99318   0.31084   0.32145   0.01267  Uiso   1.00
Mn252  Mn    0.31852   0.98550   0.32146   0.01267  Uiso   1.00
Mn253  Mn    0.53973   0.53205   0.10025   0.01267  Uiso   1.00
Mn254  Mn    0.95240   0.39817   0.40878   0.01267  Uiso   1.00
Mn255  Mn    0.40585   0.94472   0.18758   0.01267  Uiso   1.00
Mn256  Mn    0.40585   0.61938   0.18758   0.01267  Uiso   1.00
Mn257  Mn    0.62706   0.39817   0.73413   0.01267  Uiso   1.00
Mn258  Mn    0.40585   0.94472   0.40878   0.01267  Uiso   1.00
Mn259  Mn    0.62706   0.39817   0.18758   0.01267  Uiso   1.00
Mn260  Mn    0.95240   0.39817   0.18758   0.01267  Uiso   1.00
Mn261  Mn    0.40585   0.61938   0.73413   0.01267  Uiso   1.00
Mn262  Mn    0.40585   0.39817   0.40878   0.01267  Uiso   1.00
Mn263  Mn    0.95240   0.61938   0.18758   0.01267  Uiso   1.00
Mn264  Mn    0.62706   0.94472   0.18758   0.01267  Uiso   1.00
Mn265  Mn    0.40585   0.39817   0.73413   0.01267  Uiso   1.00
Mg266  Mg    0.29638   0.28463   0.43576   0.01267  Uiso   1.00
Mg267  Mg    0.32230   0.31152   0.50894   0.01267  Uiso   1.00
Mg268  Mg    0.47429   0.24449   0.47409   0.01267  Uiso   1.00
Mg269  Mg    0.62451   0.20769   0.40739   0.01267  Uiso   1.00
Mg270  Mg    0.72014   0.23929   0.49615   0.01267  Uiso   1.00
Mg271  Mg    0.64297   0.27733   0.43528   0.01267  Uiso   1.00
loop_
_geom_bond_atom_site_label_1
_geom_bond_atom_site_label_2
_geom_bond_distance
_geom_bond_site_symmetry_2
_ccdc_geom_bond_type
H1     C50     1.089   .     S
H2     C53     1.089   .     S
H3     C56     1.089   .     S
H4     C59     1.089   .     S
H5     C62     1.089   .     S
H6     C65     1.089   .     S
H7     C68     1.089   .     S
H8     C71     1.089   .     S
H9     C74     1.089   .     S
H10    C77     1.089   .     S
H11    C80     1.089   .     S
H12    C83     1.089   .     S
H13    C86     1.089   .     S
H14    C89     1.089   .     S
H15    C92     1.089   .     S
H16    C95     1.089   .     S
H17    C98     1.089   .     S
H18    C101    1.089   .     S
H19    C104    1.089   .     S
H20    C107    1.089   .     S
H21    C110    1.089   .     S
H22    C113    1.089   .     S
H23    C116    1.089   .     S
H24    C119    1.089   .     S
H25    C122    1.089   .     S
H26    C125    1.089   .     S
H27    C128    1.089   .     S
H28    C131    1.089   .     S
H29    C134    1.089   .     S
H30    C137    1.089   .     S
H31    C140    1.089   .     S
H32    C143    1.089   .     S
H33    C146    1.089   .     S
H34    C149    1.089   .     S
H35    C152    1.089   .     S
H36    C155    1.089   .     S
H37    C158    1.089   .     S
H38    C161    1.089   .     S
H39    C164    1.089   .     S
H40    C167    1.089   .     S
H41    C170    1.089   .     S
H42    C173    1.089   .     S
H43    C176    1.089   .     S
H44    C179    1.089   .     S
H45    C182    1.089   .     S
H46    C185    1.089   .     S
H47    C188    1.089   .     S
H48    C191    1.089   .     S
C49    C50     1.375   .     S
C49    C184    1.418   .     S
C49    O193    1.356   .     D
C50    C51     1.409   .     D
C51    C174    1.448   .     S
C51    C186    1.420   .     S
C52    C53     1.375   .     S
C52    C187    1.418   .     S
C52    O194    1.356   .     D
C53    C54     1.409   .     D
C54    C180    1.448   .     S
C54    C189    1.420   .     S
C55    C56     1.375   .     S
C55    C190    1.418   .     S
C55    O195    1.356   .     D
C56    C57     1.409   1_556 D
C57    C56     1.409   1_554 D
C57    C171    1.448   .     S
C57    C192    1.420   .     S
C58    C59     1.375   .     S
C58    C181    1.418   .     S
C58    O196    1.356   .     D
C59    C60     1.409   .     D
C60    C177    1.448   .     S
C60    C183    1.420   .     S
C61    C62     1.375   .     S
C61    C169    1.418   .     S
C61    O197    1.356   .     D
C62    C63     1.409   .     D
C63    C165    1.448   .     S
C63    C171    1.420   .     S
C64    C65     1.375   .     S
C64    C178    1.418   .     S
C64    O198    1.356   .     D
C65    C66     1.409   1_556 D
C66    C65     1.409   1_554 D
C66    C159    1.448   .     S
C66    C180    1.420   .     S
C67    C68     1.375   .     S
C67    C175    1.418   .     S
C67    O199    1.356   .     D
C68    C69     1.409   .     D
C69    C168    1.448   .     S
C69    C177    1.420   .     S
C70    C71     1.375   .     S
C70    C172    1.418   .     S
C70    O200    1.356   .     D
C71    C72     1.409   .     D
C72    C162    1.448   .     S
C72    C174    1.420   .     S
C73    C74     1.375   .     S
C73    C166    1.418   .     S
C73    O201    1.356   .     D
C74    C75     1.409   1_556 D
C75    C74     1.409   1_554 D
C75    C168    1.420   .     S
C75    C183    1.448   .     S
C76    C77     1.375   .     S
C76    C157    1.418   .     S
C76    O202    1.356   .     D
C77    C78     1.409   .     D
C78    C159    1.420   .     S
C78    C189    1.448   .     S
C79    C80     1.375   .     S
C79    C160    1.418   .     S
C79    O203    1.356   .     D
C80    C81     1.409   .     D
C81    C162    1.420   .     S
C81    C186    1.448   .     S
C82    C83     1.375   .     S
C82    C163    1.418   .     S
C82    O204    1.356   .     D
C83    C84     1.409   .     D
C84    C165    1.420   .     S
C84    C192    1.448   .     S
C85    C86     1.375   .     S
C85    C148    1.418   .     S
C85    O205    1.356   .     D
C86    C87     1.409   .     D
C87    C138    1.448   .     S
C87    C150    1.420   .     S
C88    C89     1.375   .     S
C88    C151    1.418   .     S
C88    O206    1.356   .     D
C89    C90     1.409   .     D
C90    C144    1.448   .     S
C90    C153    1.420   .     S
C91    C92     1.375   .     S
C91    C154    1.418   .     S
C91    O207    1.356   .     D
C92    C93     1.409   .     D
C93    C135    1.448   .     S
C93    C156    1.420   .     S
C94    C95     1.375   .     S
C94    C145    1.418   .     S
C94    O208    1.356   .     D
C95    C96     1.409   .     D
C96    C141    1.448   .     S
C96    C147    1.420   .     S
C97    C98     1.375   .     S
C97    C133    1.418   .     S
C97    O209    1.356   .     D
C98    C99     1.409   .     D
C99    C129    1.448   .     S
C99    C135    1.420   .     S
C100   C101    1.375   .     S
C100   C142    1.418   .     S
C100   O210    1.356   .     D
C101   C102    1.409   .     D
C102   C123    1.448   .     S
C102   C144    1.420   .     S
C103   C104    1.375   .     S
C103   C139    1.418   .     S
C103   O211    1.356   .     D
C104   C105    1.409   .     D
C105   C132    1.448   .     S
C105   C141    1.420   .     S
C106   C107    1.375   .     S
C106   C136    1.418   .     S
C106   O212    1.356   .     D
C107   C108    1.409   .     D
C108   C126    1.448   .     S
C108   C138    1.420   .     S
C109   C110    1.375   .     S
C109   C130    1.418   .     S
C109   O213    1.356   .     D
C110   C111    1.409   .     D
C111   C132    1.420   .     S
C111   C147    1.448   .     S
C112   C113    1.375   .     S
C112   C121    1.418   .     S
C112   O214    1.356   .     D
C113   C114    1.409   .     D
C114   C123    1.420   .     S
C114   C153    1.448   .     S
C115   C116    1.375   .     S
C115   C124    1.418   .     S
C115   O215    1.356   .     D
C116   C117    1.409   .     D
C117   C126    1.420   .     S
C117   C150    1.448   .     S
C118   C119    1.375   .     S
C118   C127    1.418   .     S
C118   O216    1.356   .     D
C119   C120    1.409   .     D
C120   C129    1.420   .     S
C120   C156    1.448   .     S
C121   C122    1.375   .     S
C121   O217    1.356   .     D
C122   C123    1.409   .     D
C124   C125    1.375   .     S
C124   O218    1.356   .     D
C125   C126    1.409   .     D
C127   C128    1.375   .     S
C127   O219    1.356   .     D
C128   C129    1.409   .     D
C130   C131    1.375   .     S
C130   O220    1.356   .     D
C131   C132    1.409   .     D
C133   C134    1.375   .     S
C133   O221    1.356   .     D
C134   C135    1.409   .     D
C136   C137    1.375   .     S
C136   O222    1.356   .     D
C137   C138    1.409   .     D
C139   C140    1.375   .     S
C139   O223    1.356   .     D
C140   C141    1.409   .     D
C142   C143    1.375   .     S
C142   O224    1.356   .     D
C143   C144    1.409   .     D
C145   C146    1.375   .     S
C145   O225    1.356   .     D
C146   C147    1.409   .     D
C148   C149    1.375   .     S
C148   O226    1.356   .     D
C149   C150    1.409   .     D
C151   C152    1.375   .     S
C151   O227    1.356   .     D
C152   C153    1.409   .     D
C154   C155    1.375   .     S
C154   O228    1.356   .     D
C155   C156    1.409   .     D
C157   C158    1.375   .     S
C157   O229    1.356   .     D
C158   C159    1.409   .     D
C160   C161    1.375   .     S
C160   O230    1.356   .     D
C161   C162    1.409   .     D
C163   C164    1.375   .     S
C163   O231    1.356   .     D
C164   C165    1.409   .     D
C166   C167    1.375   .     S
C166   O232    1.356   .     D
C167   C168    1.409   1_556 D
C168   C167    1.409   1_554 D
C169   C170    1.375   .     S
C169   O233    1.356   .     D
C170   C171    1.409   .     D
C172   C173    1.375   .     S
C172   O234    1.356   .     D
C173   C174    1.409   .     D
C175   C176    1.375   .     S
C175   O235    1.356   .     D
C176   C177    1.409   .     D
C178   C179    1.375   .     S
C178   O236    1.356   .     D
C179   C180    1.409   1_556 D
C180   C179    1.409   1_554 D
C181   C182    1.375   .     S
C181   O237    1.356   .     D
C182   C183    1.409   .     D
C184   C185    1.375   .     S
C184   O238    1.356   .     D
C185   C186    1.409   .     D
C187   C188    1.375   .     S
C187   O239    1.356   .     D
C188   C189    1.409   .     D
C190   C191    1.375   .     S
C190   O240    1.356   .     D
C191   C192    1.409   1_556 D
C192   C191    1.409   1_554 D
O193   Mn254   2.120   1_455 S
O193   Mn242   1.987   1_455 S
O194   Mn243   1.987   1_545 S
O194   Mn255   2.120   1_545 S
O195   Mn257   2.120   .     S
O195   Mn244   1.987   .     S
O196   Mn256   2.120   .     S
O196   Mn245   1.987   .     S
O197   Mn264   2.120   1_545 S
O197   Mn246   1.987   1_545 S
O198   Mn247   1.987   .     S
O198   Mn265   2.120   .     S
O199   Mn263   2.120   1_455 S
O199   Mn248   1.987   1_455 S
O200   Mn249   1.987   .     S
O200   Mn262   2.120   .     S
O201   Mn250   1.987   .     S
O201   Mn261   2.120   .     S
O202   Mn251   1.987   1_455 S
O202   Mn260   2.120   1_455 S
O203   Mn252   1.987   1_545 S
O203   Mn258   2.120   1_545 S
O204   Mn253   1.987   .     S
O204   Mn259   2.120   .     S
O205   Mn242   2.120   .     S
O205   Mn254   1.987   .     S
O206   Mn255   1.987   .     S
O206   Mn243   2.120   .     S
O207   Mn256   1.987   .     S
O207   Mn245   2.120   .     S
O208   Mn244   2.120   .     S
O208   Mn257   1.987   .     S
O209   Mn252   2.120   .     S
O209   Mn258   1.987   .     S
O210   Mn259   1.987   .     S
O210   Mn253   2.120   .     S
O211   Mn260   1.987   .     S
O211   Mn251   2.120   .     S
O212   Mn261   1.987   .     S
O212   Mn250   2.120   .     S
O213   Mn262   1.987   .     S
O213   Mn249   2.120   .     S
O214   Mn248   2.120   .     S
O214   Mn263   1.987   .     S
O215   Mn264   1.987   .     S
O215   Mn246   2.120   .     S
O216   Mn265   1.987   .     S
O216   Mn247   2.120   .     S
O217   Mn248   2.120   .     S
O217   Mn260   1.987   .     S
O218   Mn258   1.987   .     S
O218   Mn246   2.120   .     S
O219   Mn261   1.987   .     S
O219   Mn247   2.120   .     S
O220   Mn249   2.120   .     S
O220   Mn259   1.987   .     S
O221   Mn255   1.987   .     S
O221   Mn252   2.120   .     S
O222   Mn257   1.987   .     S
O222   Mn250   2.120   .     S
O223   Mn251   2.120   .     S
O223   Mn254   1.987   .     S
O224   Mn256   1.987   .     S
O224   Mn253   2.120   .     S
O225   Mn265   1.987   .     S
O225   Mn244   2.120   .     S
O226   Mn263   1.987   .     S
O226   Mn242   2.120   .     S
O227   Mn243   2.120   .     S
O227   Mn264   1.987   .     S
O228   Mn262   1.987   .     S
O228   Mn245   2.120   .     S
O229   Mn260   2.120   1_455 S
O229   Mn248   1.987   1_455 S
O230   Mn246   1.987   1_545 S
O230   Mn258   2.120   1_545 S
O231   Mn259   2.120   .     S
O231   Mn249   1.987   .     S
O232   Mn261   2.120   .     S
O232   Mn247   1.987   .     S
O233   Mn264   2.120   1_545 S
O233   Mn243   1.987   1_545 S
O234   Mn245   1.987   .     S
O234   Mn262   2.120   .     S
O235   Mn263   2.120   1_455 S
O235   Mn242   1.987   1_455 S
O236   Mn244   1.987   .     S
O236   Mn265   2.120   .     S
O237   Mn253   1.987   .     S
O237   Mn256   2.120   .     S
O238   Mn251   1.987   1_455 S
O238   Mn254   2.120   1_455 S
O239   Mn252   1.987   1_545 S
O239   Mn255   2.120   1_545 S
O240   Mn250   1.987   .     S
O240   Mn257   2.120   .     S
Mn242  O193    1.987   1_655 S
Mn242  O235    1.987   1_655 S
Mn243  O194    1.987   1_565 S
Mn243  O233    1.987   1_565 S
Mn246  O197    1.987   1_565 S
Mn246  O230    1.987   1_565 S
Mn248  O199    1.987   1_655 S
Mn248  O229    1.987   1_655 S
Mn251  O202    1.987   1_655 S
Mn251  O238    1.987   1_655 S
Mn252  O203    1.987   1_565 S
Mn252  O239    1.987   1_565 S
Mn254  O193    2.120   1_655 S
Mn254  O238    2.120   1_655 S
Mn255  O194    2.120   1_565 S
Mn255  O239    2.120   1_565 S
Mn258  O203    2.120   1_565 S
Mn258  O230    2.120   1_565 S
Mn260  O202    2.120   1_655 S
Mn260  O229    2.120   1_655 S
Mn263  O199    2.120   1_655 S
Mn263  O235    2.120   1_655 S
Mn264  O197    2.120   1_565 S
Mn264  O233    2.120   1_565 S
