data_Mn-HHTP
_audit_creation_date              2023-09-30
_audit_creation_method            'Materials Studio'
_symmetry_space_group_name_H-M    'P1'
_symmetry_Int_Tables_number       1
_symmetry_cell_setting            triclinic
loop_
_symmetry_equiv_pos_as_xyz
  x,y,z
_cell_length_a                    23.7417
_cell_length_b                    23.7417
_cell_length_c                    23.7417
_cell_angle_alpha                 60.0000
_cell_angle_beta                  60.0000
_cell_angle_gamma                 60.0000
loop_
_atom_site_label
_atom_site_type_symbol
_atom_site_fract_x
_atom_site_fract_y
_atom_site_fract_z
_atom_site_U_iso_or_equiv
_atom_site_adp_type
_atom_site_occupancy
H1     H     0.15790   0.43700   0.33447   0.01267  Uiso   1.00
H2     H     0.44468   0.15023   0.01755   0.01267  Uiso   1.00
H3     H     0.55275   0.22814   0.93963   0.01267  Uiso   1.00
H4     H     0.23582   0.54507   0.22641   0.01267  Uiso   1.00
H5     H     0.55275   0.15023   0.22641   0.01267  Uiso   1.00
H6     H     0.23582   0.43700   0.93963   0.01267  Uiso   1.00
H7     H     0.15790   0.54507   0.01755   0.01267  Uiso   1.00
H8     H     0.44468   0.22814   0.33447   0.01267  Uiso   1.00
H9     H     0.44468   0.54507   0.93963   0.01267  Uiso   1.00
H10    H     0.15790   0.22814   0.22641   0.01267  Uiso   1.00
H11    H     0.23582   0.15023   0.33447   0.01267  Uiso   1.00
H12    H     0.55275   0.43700   0.01755   0.01267  Uiso   1.00
H13    H     0.78767   0.49322   0.49148   0.01267  Uiso   1.00
H14    H     0.50089   0.77999   0.17456   0.01267  Uiso   1.00
H15    H     0.39283   0.70208   0.28262   0.01267  Uiso   1.00
H16    H     0.70976   0.38515   0.56940   0.01267  Uiso   1.00
H17    H     0.39283   0.77999   0.49148   0.01267  Uiso   1.00
H18    H     0.70976   0.49322   0.17456   0.01267  Uiso   1.00
H19    H     0.78767   0.38515   0.28262   0.01267  Uiso   1.00
H20    H     0.50089   0.70208   0.56940   0.01267  Uiso   1.00
H21    H     0.50089   0.38515   0.49148   0.01267  Uiso   1.00
H22    H     0.78767   0.70208   0.17456   0.01267  Uiso   1.00
H23    H     0.70976   0.77999   0.28262   0.01267  Uiso   1.00
H24    H     0.39283   0.49322   0.56940   0.01267  Uiso   1.00
H25    H     0.78767   0.49322   0.17456   0.01267  Uiso   1.00
H26    H     0.50089   0.77999   0.49148   0.01267  Uiso   1.00
H27    H     0.39283   0.70208   0.56940   0.01267  Uiso   1.00
H28    H     0.70976   0.38515   0.28262   0.01267  Uiso   1.00
H29    H     0.39283   0.77999   0.28262   0.01267  Uiso   1.00
H30    H     0.70976   0.49322   0.56940   0.01267  Uiso   1.00
H31    H     0.78767   0.38515   0.49148   0.01267  Uiso   1.00
H32    H     0.50089   0.70208   0.17456   0.01267  Uiso   1.00
H33    H     0.50089   0.38515   0.56940   0.01267  Uiso   1.00
H34    H     0.78767   0.70208   0.28262   0.01267  Uiso   1.00
H35    H     0.70976   0.77999   0.17456   0.01267  Uiso   1.00
H36    H     0.39283   0.49322   0.49148   0.01267  Uiso   1.00
H37    H     0.15790   0.43700   0.01755   0.01267  Uiso   1.00
H38    H     0.44468   0.15023   0.33447   0.01267  Uiso   1.00
H39    H     0.55275   0.22814   0.22641   0.01267  Uiso   1.00
H40    H     0.23582   0.54507   0.93963   0.01267  Uiso   1.00
H41    H     0.55275   0.15023   0.01755   0.01267  Uiso   1.00
H42    H     0.23582   0.43700   0.33447   0.01267  Uiso   1.00
H43    H     0.15790   0.54507   0.22641   0.01267  Uiso   1.00
H44    H     0.44468   0.22814   0.93963   0.01267  Uiso   1.00
H45    H     0.44468   0.54507   0.01755   0.01267  Uiso   1.00
H46    H     0.15790   0.22814   0.33447   0.01267  Uiso   1.00
H47    H     0.23582   0.15023   0.22641   0.01267  Uiso   1.00
H48    H     0.55275   0.43700   0.93963   0.01267  Uiso   1.00
C1     C     0.09925   0.38533   0.34734   0.01267  Uiso   1.00
C2     C     0.16052   0.39097   0.33236   0.01267  Uiso   1.00
C3     C     0.22320   0.33631   0.32151   0.01267  Uiso   1.00
C4     C     0.39300   0.09157   0.11503   0.01267  Uiso   1.00
C5     C     0.39865   0.15284   0.06309   0.01267  Uiso   1.00
C6     C     0.34399   0.21552   0.06591   0.01267  Uiso   1.00
C7     C     0.56561   0.32562   0.88097   0.01267  Uiso   1.00
C8     C     0.55063   0.27368   0.94225   0.01267  Uiso   1.00
C9     C     0.53978   0.27651   0.00493   0.01267  Uiso   1.00
C10    C     0.33330   0.55793   0.17473   0.01267  Uiso   1.00
C11    C     0.28136   0.54295   0.18037   0.01267  Uiso   1.00
C12    C     0.28418   0.53210   0.12572   0.01267  Uiso   1.00
C13    C     0.56561   0.09157   0.17473   0.01267  Uiso   1.00
C14    C     0.55063   0.15284   0.18037   0.01267  Uiso   1.00
C15    C     0.53978   0.21552   0.12572   0.01267  Uiso   1.00
C16    C     0.33330   0.38533   0.88097   0.01267  Uiso   1.00
C17    C     0.28136   0.39097   0.94225   0.01267  Uiso   1.00
C18    C     0.28418   0.33631   0.00493   0.01267  Uiso   1.00
C19    C     0.09925   0.55793   0.11503   0.01267  Uiso   1.00
C20    C     0.16052   0.54295   0.06309   0.01267  Uiso   1.00
C21    C     0.22320   0.53210   0.06591   0.01267  Uiso   1.00
C22    C     0.39300   0.32562   0.34734   0.01267  Uiso   1.00
C23    C     0.39865   0.27368   0.33236   0.01267  Uiso   1.00
C24    C     0.34399   0.27651   0.32151   0.01267  Uiso   1.00
C25    C     0.39300   0.55793   0.88097   0.01267  Uiso   1.00
C26    C     0.39865   0.54295   0.94225   0.01267  Uiso   1.00
C27    C     0.34399   0.53210   0.00493   0.01267  Uiso   1.00
C28    C     0.09925   0.32562   0.17473   0.01267  Uiso   1.00
C29    C     0.16052   0.27368   0.18037   0.01267  Uiso   1.00
C30    C     0.22320   0.27651   0.12572   0.01267  Uiso   1.00
C31    C     0.33330   0.09157   0.34734   0.01267  Uiso   1.00
C32    C     0.28136   0.15284   0.33236   0.01267  Uiso   1.00
C33    C     0.28418   0.21552   0.32151   0.01267  Uiso   1.00
C34    C     0.56561   0.38533   0.11503   0.01267  Uiso   1.00
C35    C     0.55063   0.39097   0.06309   0.01267  Uiso   1.00
C36    C     0.53978   0.33631   0.06591   0.01267  Uiso   1.00
C37    C     0.84633   0.54489   0.39401   0.01267  Uiso   1.00
C38    C     0.78506   0.53925   0.44595   0.01267  Uiso   1.00
C39    C     0.72237   0.59391   0.44312   0.01267  Uiso   1.00
C40    C     0.55257   0.83865   0.16170   0.01267  Uiso   1.00
C41    C     0.54693   0.77738   0.17667   0.01267  Uiso   1.00
C42    C     0.60159   0.71470   0.18752   0.01267  Uiso   1.00
C43    C     0.37997   0.60460   0.33430   0.01267  Uiso   1.00
C44    C     0.39494   0.65654   0.32866   0.01267  Uiso   1.00
C45    C     0.40580   0.65372   0.38332   0.01267  Uiso   1.00
C46    C     0.61228   0.37229   0.62806   0.01267  Uiso   1.00
C47    C     0.66422   0.38727   0.56679   0.01267  Uiso   1.00
C48    C     0.66139   0.39812   0.50410   0.01267  Uiso   1.00
C49    C     0.37997   0.83865   0.39401   0.01267  Uiso   1.00
C50    C     0.39494   0.77738   0.44595   0.01267  Uiso   1.00
C51    C     0.40580   0.71470   0.44312   0.01267  Uiso   1.00
C52    C     0.61228   0.54489   0.16170   0.01267  Uiso   1.00
C53    C     0.66422   0.53925   0.17667   0.01267  Uiso   1.00
C54    C     0.66139   0.59391   0.18753   0.01267  Uiso   1.00
C55    C     0.84633   0.37229   0.33430   0.01267  Uiso   1.00
C56    C     0.78506   0.38726   0.32866   0.01267  Uiso   1.00
C57    C     0.72237   0.39812   0.38332   0.01267  Uiso   1.00
C58    C     0.55257   0.60460   0.62806   0.01267  Uiso   1.00
C59    C     0.54693   0.65654   0.56679   0.01267  Uiso   1.00
C60    C     0.60159   0.65372   0.50410   0.01267  Uiso   1.00
C61    C     0.55257   0.37229   0.39401   0.01267  Uiso   1.00
C62    C     0.54693   0.38726   0.44595   0.01267  Uiso   1.00
C63    C     0.60159   0.39812   0.44312   0.01267  Uiso   1.00
C64    C     0.84633   0.60460   0.16170   0.01267  Uiso   1.00
C65    C     0.78506   0.65654   0.17667   0.01267  Uiso   1.00
C66    C     0.72237   0.65372   0.18752   0.01267  Uiso   1.00
C67    C     0.61228   0.83865   0.33430   0.01267  Uiso   1.00
C68    C     0.66422   0.77738   0.32866   0.01267  Uiso   1.00
C69    C     0.66139   0.71470   0.38332   0.01267  Uiso   1.00
C70    C     0.37997   0.54489   0.62806   0.01267  Uiso   1.00
C71    C     0.39494   0.53925   0.56679   0.01267  Uiso   1.00
C72    C     0.40580   0.59391   0.50410   0.01267  Uiso   1.00
C73    C     0.84633   0.54489   0.16170   0.01267  Uiso   1.00
C74    C     0.78506   0.53925   0.17667   0.01267  Uiso   1.00
C75    C     0.72237   0.59391   0.18752   0.01267  Uiso   1.00
C76    C     0.55257   0.83865   0.39401   0.01267  Uiso   1.00
C77    C     0.54693   0.77738   0.44595   0.01267  Uiso   1.00
C78    C     0.60159   0.71470   0.44312   0.01267  Uiso   1.00
C79    C     0.37997   0.60460   0.62806   0.01267  Uiso   1.00
C80    C     0.39494   0.65654   0.56679   0.01267  Uiso   1.00
C81    C     0.40580   0.65372   0.50410   0.01267  Uiso   1.00
C82    C     0.61228   0.37229   0.33430   0.01267  Uiso   1.00
C83    C     0.66422   0.38727   0.32866   0.01267  Uiso   1.00
C84    C     0.66139   0.39812   0.38332   0.01267  Uiso   1.00
C85    C     0.37997   0.83865   0.33430   0.01267  Uiso   1.00
C86    C     0.39494   0.77738   0.32866   0.01267  Uiso   1.00
C87    C     0.40580   0.71470   0.38332   0.01267  Uiso   1.00
C88    C     0.61228   0.54489   0.62806   0.01267  Uiso   1.00
C89    C     0.66422   0.53925   0.56679   0.01267  Uiso   1.00
C90    C     0.66139   0.59391   0.50410   0.01267  Uiso   1.00
C91    C     0.84633   0.37229   0.39401   0.01267  Uiso   1.00
C92    C     0.78506   0.38726   0.44595   0.01267  Uiso   1.00
C93    C     0.72237   0.39812   0.44312   0.01267  Uiso   1.00
C94    C     0.55257   0.60460   0.16170   0.01267  Uiso   1.00
C95    C     0.54693   0.65654   0.17667   0.01267  Uiso   1.00
C96    C     0.60159   0.65372   0.18753   0.01267  Uiso   1.00
C97    C     0.55257   0.37229   0.62806   0.01267  Uiso   1.00
C98    C     0.54693   0.38726   0.56679   0.01267  Uiso   1.00
C99    C     0.60159   0.39812   0.50410   0.01267  Uiso   1.00
C100   C     0.84633   0.60460   0.33430   0.01267  Uiso   1.00
C101   C     0.78506   0.65654   0.32866   0.01267  Uiso   1.00
C102   C     0.72237   0.65372   0.38332   0.01267  Uiso   1.00
C103   C     0.61228   0.83865   0.16170   0.01267  Uiso   1.00
C104   C     0.66422   0.77738   0.17667   0.01267  Uiso   1.00
C105   C     0.66139   0.71470   0.18753   0.01267  Uiso   1.00
C106   C     0.37997   0.54489   0.39401   0.01267  Uiso   1.00
C107   C     0.39494   0.53925   0.44595   0.01267  Uiso   1.00
C108   C     0.40580   0.59391   0.44312   0.01267  Uiso   1.00
C109   C     0.09925   0.38533   0.11503   0.01267  Uiso   1.00
C110   C     0.16052   0.39097   0.06308   0.01267  Uiso   1.00
C111   C     0.22320   0.33631   0.06591   0.01267  Uiso   1.00
C112   C     0.39300   0.09157   0.34734   0.01267  Uiso   1.00
C113   C     0.39865   0.15284   0.33236   0.01267  Uiso   1.00
C114   C     0.34399   0.21552   0.32151   0.01267  Uiso   1.00
C115   C     0.56561   0.32562   0.17473   0.01267  Uiso   1.00
C116   C     0.55063   0.27368   0.18037   0.01267  Uiso   1.00
C117   C     0.53978   0.27651   0.12571   0.01267  Uiso   1.00
C118   C     0.33330   0.55793   0.88097   0.01267  Uiso   1.00
C119   C     0.28136   0.54295   0.94225   0.01267  Uiso   1.00
C120   C     0.28418   0.53210   0.00493   0.01267  Uiso   1.00
C121   C     0.56561   0.09157   0.11503   0.01267  Uiso   1.00
C122   C     0.55063   0.15284   0.06309   0.01267  Uiso   1.00
C123   C     0.53978   0.21552   0.06591   0.01267  Uiso   1.00
C124   C     0.33330   0.38533   0.34734   0.01267  Uiso   1.00
C125   C     0.28136   0.39097   0.33236   0.01267  Uiso   1.00
C126   C     0.28418   0.33631   0.32151   0.01267  Uiso   1.00
C127   C     0.09925   0.55793   0.17473   0.01267  Uiso   1.00
C128   C     0.16052   0.54295   0.18037   0.01267  Uiso   1.00
C129   C     0.22320   0.53210   0.12572   0.01267  Uiso   1.00
C130   C     0.39300   0.32562   0.88097   0.01267  Uiso   1.00
C131   C     0.39865   0.27368   0.94225   0.01267  Uiso   1.00
C132   C     0.34399   0.27651   0.00493   0.01267  Uiso   1.00
C133   C     0.39300   0.55793   0.11503   0.01267  Uiso   1.00
C134   C     0.39865   0.54295   0.06309   0.01267  Uiso   1.00
C135   C     0.34399   0.53210   0.06591   0.01267  Uiso   1.00
C136   C     0.09925   0.32562   0.34734   0.01267  Uiso   1.00
C137   C     0.16052   0.27368   0.33236   0.01267  Uiso   1.00
C138   C     0.22320   0.27651   0.32151   0.01267  Uiso   1.00
C139   C     0.33330   0.09157   0.17473   0.01267  Uiso   1.00
C140   C     0.28136   0.15284   0.18037   0.01267  Uiso   1.00
C141   C     0.28418   0.21552   0.12572   0.01267  Uiso   1.00
C142   C     0.56561   0.38533   0.88097   0.01267  Uiso   1.00
C143   C     0.55063   0.39097   0.94225   0.01267  Uiso   1.00
C144   C     0.53978   0.33631   0.00493   0.01267  Uiso   1.00
O1     O     0.03680   0.43242   0.36706   0.01267  Uiso   1.00
O2     O     0.44010   0.02912   0.11066   0.01267  Uiso   1.00
O3     O     0.58533   0.32125   0.81852   0.01267  Uiso   1.00
O4     O     0.32893   0.57765   0.22183   0.01267  Uiso   1.00
O5     O     0.58533   0.02912   0.22183   0.01267  Uiso   1.00
O6     O     0.32893   0.43242   0.81852   0.01267  Uiso   1.00
O7     O     0.03680   0.57765   0.11066   0.01267  Uiso   1.00
O8     O     0.44010   0.32125   0.36706   0.01267  Uiso   1.00
O9     O     0.44010   0.57765   0.81852   0.01267  Uiso   1.00
O10    O     0.03680   0.32125   0.22183   0.01267  Uiso   1.00
O11    O     0.32893   0.02912   0.36706   0.01267  Uiso   1.00
O12    O     0.58533   0.43242   0.11066   0.01267  Uiso   1.00
O13    O     0.90878   0.49780   0.39838   0.01267  Uiso   1.00
O14    O     0.50548   0.90110   0.14198   0.01267  Uiso   1.00
O15    O     0.36025   0.60897   0.28721   0.01267  Uiso   1.00
O16    O     0.61665   0.35257   0.69051   0.01267  Uiso   1.00
O17    O     0.36025   0.90110   0.39838   0.01267  Uiso   1.00
O18    O     0.61665   0.49780   0.14198   0.01267  Uiso   1.00
O19    O     0.90878   0.35257   0.28721   0.01267  Uiso   1.00
O20    O     0.50548   0.60897   0.69051   0.01267  Uiso   1.00
O21    O     0.50548   0.35257   0.39838   0.01267  Uiso   1.00
O22    O     0.90878   0.60897   0.14198   0.01267  Uiso   1.00
O23    O     0.61665   0.90110   0.28721   0.01267  Uiso   1.00
O24    O     0.36025   0.49780   0.69051   0.01267  Uiso   1.00
O25    O     0.90878   0.49780   0.14198   0.01267  Uiso   1.00
O26    O     0.50548   0.90110   0.39838   0.01267  Uiso   1.00
O27    O     0.36025   0.60897   0.69051   0.01267  Uiso   1.00
O28    O     0.61665   0.35257   0.28721   0.01267  Uiso   1.00
O29    O     0.36025   0.90110   0.28721   0.01267  Uiso   1.00
O30    O     0.61665   0.49780   0.69051   0.01267  Uiso   1.00
O31    O     0.90878   0.35257   0.39838   0.01267  Uiso   1.00
O32    O     0.50548   0.60897   0.14198   0.01267  Uiso   1.00
O33    O     0.50548   0.35257   0.69051   0.01267  Uiso   1.00
O34    O     0.90878   0.60897   0.28721   0.01267  Uiso   1.00
O35    O     0.61665   0.90110   0.14198   0.01267  Uiso   1.00
O36    O     0.36025   0.49780   0.39838   0.01267  Uiso   1.00
O37    O     0.03680   0.43242   0.11066   0.01267  Uiso   1.00
O38    O     0.44010   0.02912   0.36706   0.01267  Uiso   1.00
O39    O     0.58533   0.32125   0.22183   0.01267  Uiso   1.00
O40    O     0.32893   0.57765   0.81852   0.01267  Uiso   1.00
O41    O     0.58533   0.02912   0.11066   0.01267  Uiso   1.00
O42    O     0.32893   0.43242   0.36706   0.01267  Uiso   1.00
O43    O     0.03680   0.57765   0.22183   0.01267  Uiso   1.00
O44    O     0.44010   0.32125   0.81852   0.01267  Uiso   1.00
O45    O     0.44010   0.57765   0.11066   0.01267  Uiso   1.00
O46    O     0.03680   0.32125   0.36706   0.01267  Uiso   1.00
O47    O     0.32893   0.02912   0.22183   0.01267  Uiso   1.00
O48    O     0.58533   0.43242   0.81852   0.01267  Uiso   1.00
Mn1    Mn    0.99318   0.53205   0.32145   0.01267  Uiso   1.00
Mn2    Mn    0.53973   0.98550   0.10025   0.01267  Uiso   1.00
Mn3    Mn    0.53973   0.31084   0.77491   0.01267  Uiso   1.00
Mn4    Mn    0.31852   0.53205   0.32145   0.01267  Uiso   1.00
Mn5    Mn    0.53973   0.98550   0.32145   0.01267  Uiso   1.00
Mn6    Mn    0.31852   0.53205   0.77491   0.01267  Uiso   1.00
Mn7    Mn    0.99318   0.53205   0.10025   0.01267  Uiso   1.00
Mn8    Mn    0.53973   0.31084   0.32145   0.01267  Uiso   1.00
Mn9    Mn    0.53973   0.53205   0.77491   0.01267  Uiso   1.00
Mn10   Mn    0.99318   0.31084   0.32145   0.01267  Uiso   1.00
Mn11   Mn    0.31852   0.98550   0.32146   0.01267  Uiso   1.00
Mn12   Mn    0.53973   0.53205   0.10025   0.01267  Uiso   1.00
Mn13   Mn    0.95240   0.39817   0.40878   0.01267  Uiso   1.00
Mn14   Mn    0.40585   0.94472   0.18758   0.01267  Uiso   1.00
Mn15   Mn    0.40585   0.61938   0.18758   0.01267  Uiso   1.00
Mn16   Mn    0.62706   0.39817   0.73413   0.01267  Uiso   1.00
Mn17   Mn    0.40585   0.94472   0.40878   0.01267  Uiso   1.00
Mn18   Mn    0.62706   0.39817   0.18758   0.01267  Uiso   1.00
Mn19   Mn    0.95240   0.39817   0.18758   0.01267  Uiso   1.00
Mn20   Mn    0.40585   0.61938   0.73413   0.01267  Uiso   1.00
Mn21   Mn    0.40585   0.39817   0.40878   0.01267  Uiso   1.00
Mn22   Mn    0.95240   0.61938   0.18758   0.01267  Uiso   1.00
Mn23   Mn    0.62706   0.94472   0.18758   0.01267  Uiso   1.00
Mn24   Mn    0.40585   0.39817   0.73413   0.01267  Uiso   1.00
loop_
_geom_bond_atom_site_label_1
_geom_bond_atom_site_label_2
_geom_bond_distance
_geom_bond_site_symmetry_2
_ccdc_geom_bond_type
H1     C2      1.089   .     S
H2     C5      1.089   .     S
H3     C8      1.089   .     S
H4     C11     1.089   .     S
H5     C14     1.089   .     S
H6     C17     1.089   .     S
H7     C20     1.089   .     S
H8     C23     1.089   .     S
H9     C26     1.089   .     S
H10    C29     1.089   .     S
H11    C32     1.089   .     S
H12    C35     1.089   .     S
H13    C38     1.089   .     S
H14    C41     1.089   .     S
H15    C44     1.089   .     S
H16    C47     1.089   .     S
H17    C50     1.089   .     S
H18    C53     1.089   .     S
H19    C56     1.089   .     S
H20    C59     1.089   .     S
H21    C62     1.089   .     S
H22    C65     1.089   .     S
H23    C68     1.089   .     S
H24    C71     1.089   .     S
H25    C74     1.089   .     S
H26    C77     1.089   .     S
H27    C80     1.089   .     S
H28    C83     1.089   .     S
H29    C86     1.089   .     S
H30    C89     1.089   .     S
H31    C92     1.089   .     S
H32    C95     1.089   .     S
H33    C98     1.089   .     S
H34    C101    1.089   .     S
H35    C104    1.089   .     S
H36    C107    1.089   .     S
H37    C110    1.089   .     S
H38    C113    1.089   .     S
H39    C116    1.089   .     S
H40    C119    1.089   .     S
H41    C122    1.089   .     S
H42    C125    1.089   .     S
H43    C128    1.089   .     S
H44    C131    1.089   .     S
H45    C134    1.089   .     S
H46    C137    1.089   .     S
H47    C140    1.089   .     S
H48    C143    1.089   .     S
C1     C2      1.375   .     S
C1     C136    1.418   .     S
C1     O1      1.356   .     D
C2     C3      1.409   .     D
C3     C126    1.448   .     S
C3     C138    1.420   .     S
C4     C5      1.375   .     S
C4     C139    1.418   .     S
C4     O2      1.356   .     D
C5     C6      1.409   .     D
C6     C132    1.448   .     S
C6     C141    1.420   .     S
C7     C8      1.375   .     S
C7     C142    1.418   .     S
C7     O3      1.356   .     D
C8     C9      1.409   1_556 D
C9     C8      1.409   1_554 D
C9     C123    1.448   .     S
C9     C144    1.420   .     S
C10    C11     1.375   .     S
C10    C133    1.418   .     S
C10    O4      1.356   .     D
C11    C12     1.409   .     D
C12    C129    1.448   .     S
C12    C135    1.420   .     S
C13    C14     1.375   .     S
C13    C121    1.418   .     S
C13    O5      1.356   .     D
C14    C15     1.409   .     D
C15    C117    1.448   .     S
C15    C123    1.420   .     S
C16    C17     1.375   .     S
C16    C130    1.418   .     S
C16    O6      1.356   .     D
C17    C18     1.409   1_556 D
C18    C17     1.409   1_554 D
C18    C111    1.448   .     S
C18    C132    1.420   .     S
C19    C20     1.375   .     S
C19    C127    1.418   .     S
C19    O7      1.356   .     D
C20    C21     1.409   .     D
C21    C120    1.448   .     S
C21    C129    1.420   .     S
C22    C23     1.375   .     S
C22    C124    1.418   .     S
C22    O8      1.356   .     D
C23    C24     1.409   .     D
C24    C114    1.448   .     S
C24    C126    1.420   .     S
C25    C26     1.375   .     S
C25    C118    1.418   .     S
C25    O9      1.356   .     D
C26    C27     1.409   1_556 D
C27    C26     1.409   1_554 D
C27    C120    1.420   .     S
C27    C135    1.448   .     S
C28    C29     1.375   .     S
C28    C109    1.418   .     S
C28    O10     1.356   .     D
C29    C30     1.409   .     D
C30    C111    1.420   .     S
C30    C141    1.448   .     S
C31    C32     1.375   .     S
C31    C112    1.418   .     S
C31    O11     1.356   .     D
C32    C33     1.409   .     D
C33    C114    1.420   .     S
C33    C138    1.448   .     S
C34    C35     1.375   .     S
C34    C115    1.418   .     S
C34    O12     1.356   .     D
C35    C36     1.409   .     D
C36    C117    1.420   .     S
C36    C144    1.448   .     S
C37    C38     1.375   .     S
C37    C100    1.418   .     S
C37    O13     1.356   .     D
C38    C39     1.409   .     D
C39    C90     1.448   .     S
C39    C102    1.420   .     S
C40    C41     1.375   .     S
C40    C103    1.418   .     S
C40    O14     1.356   .     D
C41    C42     1.409   .     D
C42    C96     1.448   .     S
C42    C105    1.420   .     S
C43    C44     1.375   .     S
C43    C106    1.418   .     S
C43    O15     1.356   .     D
C44    C45     1.409   .     D
C45    C87     1.448   .     S
C45    C108    1.420   .     S
C46    C47     1.375   .     S
C46    C97     1.418   .     S
C46    O16     1.356   .     D
C47    C48     1.409   .     D
C48    C93     1.448   .     S
C48    C99     1.420   .     S
C49    C50     1.375   .     S
C49    C85     1.418   .     S
C49    O17     1.356   .     D
C50    C51     1.409   .     D
C51    C81     1.448   .     S
C51    C87     1.420   .     S
C52    C53     1.375   .     S
C52    C94     1.418   .     S
C52    O18     1.356   .     D
C53    C54     1.409   .     D
C54    C75     1.448   .     S
C54    C96     1.420   .     S
C55    C56     1.375   .     S
C55    C91     1.418   .     S
C55    O19     1.356   .     D
C56    C57     1.409   .     D
C57    C84     1.448   .     S
C57    C93     1.420   .     S
C58    C59     1.375   .     S
C58    C88     1.418   .     S
C58    O20     1.356   .     D
C59    C60     1.409   .     D
C60    C78     1.448   .     S
C60    C90     1.420   .     S
C61    C62     1.375   .     S
C61    C82     1.418   .     S
C61    O21     1.356   .     D
C62    C63     1.409   .     D
C63    C84     1.420   .     S
C63    C99     1.448   .     S
C64    C65     1.375   .     S
C64    C73     1.418   .     S
C64    O22     1.356   .     D
C65    C66     1.409   .     D
C66    C75     1.420   .     S
C66    C105    1.448   .     S
C67    C68     1.375   .     S
C67    C76     1.418   .     S
C67    O23     1.356   .     D
C68    C69     1.409   .     D
C69    C78     1.420   .     S
C69    C102    1.448   .     S
C70    C71     1.375   .     S
C70    C79     1.418   .     S
C70    O24     1.356   .     D
C71    C72     1.409   .     D
C72    C81     1.420   .     S
C72    C108    1.448   .     S
C73    C74     1.375   .     S
C73    O25     1.356   .     D
C74    C75     1.409   .     D
C76    C77     1.375   .     S
C76    O26     1.356   .     D
C77    C78     1.409   .     D
C79    C80     1.375   .     S
C79    O27     1.356   .     D
C80    C81     1.409   .     D
C82    C83     1.375   .     S
C82    O28     1.356   .     D
C83    C84     1.409   .     D
C85    C86     1.375   .     S
C85    O29     1.356   .     D
C86    C87     1.409   .     D
C88    C89     1.375   .     S
C88    O30     1.356   .     D
C89    C90     1.409   .     D
C91    C92     1.375   .     S
C91    O31     1.356   .     D
C92    C93     1.409   .     D
C94    C95     1.375   .     S
C94    O32     1.356   .     D
C95    C96     1.409   .     D
C97    C98     1.375   .     S
C97    O33     1.356   .     D
C98    C99     1.409   .     D
C100   C101    1.375   .     S
C100   O34     1.356   .     D
C101   C102    1.409   .     D
C103   C104    1.375   .     S
C103   O35     1.356   .     D
C104   C105    1.409   .     D
C106   C107    1.375   .     S
C106   O36     1.356   .     D
C107   C108    1.409   .     D
C109   C110    1.375   .     S
C109   O37     1.356   .     D
C110   C111    1.409   .     D
C112   C113    1.375   .     S
C112   O38     1.356   .     D
C113   C114    1.409   .     D
C115   C116    1.375   .     S
C115   O39     1.356   .     D
C116   C117    1.409   .     D
C118   C119    1.375   .     S
C118   O40     1.356   .     D
C119   C120    1.409   1_556 D
C120   C119    1.409   1_554 D
C121   C122    1.375   .     S
C121   O41     1.356   .     D
C122   C123    1.409   .     D
C124   C125    1.375   .     S
C124   O42     1.356   .     D
C125   C126    1.409   .     D
C127   C128    1.375   .     S
C127   O43     1.356   .     D
C128   C129    1.409   .     D
C130   C131    1.375   .     S
C130   O44     1.356   .     D
C131   C132    1.409   1_556 D
C132   C131    1.409   1_554 D
C133   C134    1.375   .     S
C133   O45     1.356   .     D
C134   C135    1.409   .     D
C136   C137    1.375   .     S
C136   O46     1.356   .     D
C137   C138    1.409   .     D
C139   C140    1.375   .     S
C139   O47     1.356   .     D
C140   C141    1.409   .     D
C142   C143    1.375   .     S
C142   O48     1.356   .     D
C143   C144    1.409   1_556 D
C144   C143    1.409   1_554 D
O1     Mn1     1.987   1_455 S
O1     Mn13    2.120   1_455 S
O2     Mn2     1.987   1_545 S
O2     Mn14    2.120   1_545 S
O3     Mn3     1.987   .     S
O3     Mn16    2.120   .     S
O4     Mn4     1.987   .     S
O4     Mn15    2.120   .     S
O5     Mn5     1.987   1_545 S
O5     Mn23    2.120   1_545 S
O6     Mn6     1.987   .     S
O6     Mn24    2.120   .     S
O7     Mn7     1.987   1_455 S
O7     Mn22    2.120   1_455 S
O8     Mn8     1.987   .     S
O8     Mn21    2.120   .     S
O9     Mn9     1.987   .     S
O9     Mn20    2.120   .     S
O10    Mn10    1.987   1_455 S
O10    Mn19    2.120   1_455 S
O11    Mn11    1.987   1_545 S
O11    Mn17    2.120   1_545 S
O12    Mn12    1.987   .     S
O12    Mn18    2.120   .     S
O13    Mn1     2.120   .     S
O13    Mn13    1.987   .     S
O14    Mn2     2.120   .     S
O14    Mn14    1.987   .     S
O15    Mn4     2.120   .     S
O15    Mn15    1.987   .     S
O16    Mn3     2.120   .     S
O16    Mn16    1.987   .     S
O17    Mn11    2.120   .     S
O17    Mn17    1.987   .     S
O18    Mn12    2.120   .     S
O18    Mn18    1.987   .     S
O19    Mn10    2.120   .     S
O19    Mn19    1.987   .     S
O20    Mn9     2.120   .     S
O20    Mn20    1.987   .     S
O21    Mn8     2.120   .     S
O21    Mn21    1.987   .     S
O22    Mn7     2.120   .     S
O22    Mn22    1.987   .     S
O23    Mn5     2.120   .     S
O23    Mn23    1.987   .     S
O24    Mn6     2.120   .     S
O24    Mn24    1.987   .     S
O25    Mn7     2.120   .     S
O25    Mn19    1.987   .     S
O26    Mn5     2.120   .     S
O26    Mn17    1.987   .     S
O27    Mn6     2.120   .     S
O27    Mn20    1.987   .     S
O28    Mn8     2.120   .     S
O28    Mn18    1.987   .     S
O29    Mn11    2.120   .     S
O29    Mn14    1.987   .     S
O30    Mn9     2.120   .     S
O30    Mn16    1.987   .     S
O31    Mn10    2.120   .     S
O31    Mn13    1.987   .     S
O32    Mn12    2.120   .     S
O32    Mn15    1.987   .     S
O33    Mn3     2.120   .     S
O33    Mn24    1.987   .     S
O34    Mn1     2.120   .     S
O34    Mn22    1.987   .     S
O35    Mn2     2.120   .     S
O35    Mn23    1.987   .     S
O36    Mn4     2.120   .     S
O36    Mn21    1.987   .     S
O37    Mn7     1.987   1_455 S
O37    Mn19    2.120   1_455 S
O38    Mn5     1.987   1_545 S
O38    Mn17    2.120   1_545 S
O39    Mn8     1.987   .     S
O39    Mn18    2.120   .     S
O40    Mn6     1.987   .     S
O40    Mn20    2.120   .     S
O41    Mn2     1.987   1_545 S
O41    Mn23    2.120   1_545 S
O42    Mn4     1.987   .     S
O42    Mn21    2.120   .     S
O43    Mn1     1.987   1_455 S
O43    Mn22    2.120   1_455 S
O44    Mn3     1.987   .     S
O44    Mn24    2.120   .     S
O45    Mn12    1.987   .     S
O45    Mn15    2.120   .     S
O46    Mn10    1.987   1_455 S
O46    Mn13    2.120   1_455 S
O47    Mn11    1.987   1_545 S
O47    Mn14    2.120   1_545 S
O48    Mn9     1.987   .     S
O48    Mn16    2.120   .     S
Mn1    O1      1.987   1_655 S
Mn1    O43     1.987   1_655 S
Mn1    Mn13    3.133   .     S
Mn1    Mn22    3.133   .     S
Mn2    O41     1.987   1_565 S
Mn2    O2      1.987   1_565 S
Mn2    Mn14    3.133   .     S
Mn2    Mn23    3.133   .     S
Mn3    Mn16    3.133   .     S
Mn3    Mn24    3.133   .     S
Mn4    Mn15    3.133   .     S
Mn4    Mn21    3.133   .     S
Mn5    O38     1.987   1_565 S
Mn5    O5      1.987   1_565 S
Mn5    Mn17    3.133   .     S
Mn5    Mn23    3.133   .     S
Mn6    Mn20    3.133   .     S
Mn6    Mn24    3.133   .     S
Mn7    O37     1.987   1_655 S
Mn7    O7      1.987   1_655 S
Mn7    Mn19    3.133   .     S
Mn7    Mn22    3.133   .     S
Mn8    Mn18    3.133   .     S
Mn8    Mn21    3.133   .     S
Mn9    Mn16    3.133   .     S
Mn9    Mn20    3.133   .     S
Mn10   O46     1.987   1_655 S
Mn10   O10     1.987   1_655 S
Mn10   Mn13    3.133   .     S
Mn10   Mn19    3.133   .     S
Mn11   O11     1.987   1_565 S
Mn11   O47     1.987   1_565 S
Mn11   Mn14    3.133   .     S
Mn11   Mn17    3.133   .     S
Mn12   Mn15    3.133   .     S
Mn12   Mn18    3.133   .     S
Mn13   O1      2.120   1_655 S
Mn13   O46     2.120   1_655 S
Mn14   O2      2.120   1_565 S
Mn14   O47     2.120   1_565 S
Mn17   O38     2.120   1_565 S
Mn17   O11     2.120   1_565 S
Mn19   O10     2.120   1_655 S
Mn19   O37     2.120   1_655 S
Mn22   O43     2.120   1_655 S
Mn22   O7      2.120   1_655 S
Mn23   O5      2.120   1_565 S
Mn23   O41     2.120   1_565 S
